/*--------------------------------*- C++ -*----------------------------------*\
| =========                 |                                                |
| \\      /  F ield         | cfMesh: A library for mesh generation          |
|  \\    /   O peration     |                                                |
|   \\  /    A nd           | Author: Franjo Juretic                         |
|    \\/     M anipulation  | E-mail: franjo.juretic@c-fields.com            |
\*---------------------------------------------------------------------------*/

FoamFile
{
    version     2.0;
    format      ascii;
    class       dictionary;
    object      meshDict;
}

// * * * * * * * * * * * * * * * * * * * * * * * * * * * * * * * * * * * * * //

maxCellSize     1;

surfaceFile     "box.stl";

localRefinement
{
    "(profile.*)"
    {
        cellSize 0.03;
/*                cellSize 0.01;*/
/*        refinementThickness 0.03;*/
    }
}

refFine		0.05;
widthFine	0.01;
refNormal		0.005;
widthNormal		0.02;

/*refFine		0.0005;*/
/*widthFine	0.01;*/
/*refNormal		0.005;*/
/*widthNormal		0.04;*/

objectRefinements
{
        
           wake
    {
        type        box;
/*        cellSize    0.05;*/
                cellSize    0.1;
        centre          (1 -0.5 0);
        lengthX		3.5;
                lengthY		1.5;
                        lengthZ		10;
    }
}

boundaryLayers
{
    nLayers 0;

    patchBoundaryLayers
    {
    "(profile.*)"
{
nLayers 5;
    thicknessRatio 1.2;
    maxFirstLayerThickness 0.01;
}
    }
        optimiseLayer 1;
}

renameBoundary
{
    newPatchNames
    {
                bottomEmptyFaces
        {
            type    symmetry;
            newName symmetry1;
        }
                        topEmptyFaces
        {
            type    symmetry;
            newName symmetry2;
        }
                        "(x.*|y.*)"
        {
            type    patch;
            newName inout;
        }
    }
}
// ************************************************************************* //
