/*--------------------------------*- C++ -*----------------------------------*\
| =========                 |                                                 |
| \\      /  F ield         | OpenFOAM: The Open Source CFD Toolbox           |
|  \\    /   O peration     | Version:  2506                                  |
|   \\  /    A nd           | Website:  www.openfoam.com                      |
|    \\/     M anipulation  |                                                 |
\*---------------------------------------------------------------------------*/
FoamFile
{
    version     2.0;
    format      ascii;
    arch        "LSB;label=32;scalar=64";
    class       polyBoundaryMesh;
    location    "constant/polyMesh";
    object      boundary;
}
// * * * * * * * * * * * * * * * * * * * * * * * * * * * * * * * * * * * * * //

5
(
    symmetry1
    {
        type            symmetry;
        inGroups        1(symmetry);
        nFaces          38460;
        startFace       77155;
    }
    symmetry2
    {
        type            symmetry;
        inGroups        1(symmetry);
        nFaces          38460;
        startFace       115615;
    }
    inout
    {
        type            patch;
        nFaces          88;
        startFace       154075;
    }
    profile0
    {
        type            wall;
        inGroups        1(wall);
        nFaces          653;
        startFace       154163;
    }
    profile1
    {
        type            wall;
        inGroups        1(wall);
        nFaces          388;
        startFace       154816;
    }
)

// ************************************************************************* //
