/*--------------------------------*- C++ -*----------------------------------*\
| =========                 |                                                 |
| \\      /  F ield         | OpenFOAM: The Open Source CFD Toolbox           |
|  \\    /   O peration     | Version:  2406                                  |
|   \\  /    A nd           | Website:  www.openfoam.com                      |
|    \\/     M anipulation  |                                                 |
\*---------------------------------------------------------------------------*/
FoamFile
{
    version     2.0;
    format      ascii;
    arch        "LSB;label=32;scalar=64";
    class       polyBoundaryMesh;
    location    "constant/polyMesh";
    object      boundary;
}
// * * * * * * * * * * * * * * * * * * * * * * * * * * * * * * * * * * * * * //

5
(
    symmetry1
    {
        type            symmetry;
        inGroups        1(symmetry);
        nFaces          42429;
        startFace       85115;
    }
    symmetry2
    {
        type            symmetry;
        inGroups        1(symmetry);
        nFaces          42429;
        startFace       127544;
    }
    inout
    {
        type            patch;
        nFaces          88;
        startFace       169973;
    }
    profile0
    {
        type            wall;
        inGroups        1(wall);
        nFaces          585;
        startFace       170061;
    }
    profile1
    {
        type            wall;
        inGroups        1(wall);
        nFaces          540;
        startFace       170646;
    }
)

// ************************************************************************* //
