/*--------------------------------*- C++ -*----------------------------------*\
| =========                 |                                                 |
| \\      /  F ield         | OpenFOAM: The Open Source CFD Toolbox           |
|  \\    /   O peration     | Version:  2406                                  |
|   \\  /    A nd           | Website:  www.openfoam.com                      |
|    \\/     M anipulation  |                                                 |
\*---------------------------------------------------------------------------*/
FoamFile
{
    version     2.0;
    format      ascii;
    arch        "LSB;label=32;scalar=64";
    class       polyBoundaryMesh;
    location    "constant/polyMesh";
    object      boundary;
}
// * * * * * * * * * * * * * * * * * * * * * * * * * * * * * * * * * * * * * //

5
(
    main
    {
        type            wall;
        inGroups        1(wall);
        nFaces          486;
        startFace       42279;
    }
    flap
    {
        type            wall;
        inGroups        1(wall);
        nFaces          546;
        startFace       42765;
    }
    symmetry1
    {
        type            symmetry;
        inGroups        1(symmetry);
        nFaces          20998;
        startFace       43311;
    }
    symmetry2
    {
        type            symmetry;
        inGroups        1(symmetry);
        nFaces          20998;
        startFace       64309;
    }
    inout
    {
        type            patch;
        nFaces          88;
        startFace       85307;
    }
)

// ************************************************************************* //
