/*--------------------------------*- C++ -*----------------------------------*\
| =========                 |                                                 |
| \\      /  F ield         | OpenFOAM: The Open Source CFD Toolbox           |
|  \\    /   O peration     | Version:  2406                                  |
|   \\  /    A nd           | Website:  www.openfoam.com                      |
|    \\/     M anipulation  |                                                 |
\*---------------------------------------------------------------------------*/
FoamFile
{
    version     2.0;
    format      ascii;
    arch        "LSB;label=32;scalar=64";
    class       polyBoundaryMesh;
    location    "constant/polyMesh";
    object      boundary;
}
// * * * * * * * * * * * * * * * * * * * * * * * * * * * * * * * * * * * * * //

7
(
    symmetry1
    {
        type            symmetry;
        inGroups        1(symmetry);
        nFaces          8568;
        startFace       17272;
    }
    symmetry2
    {
        type            symmetry;
        inGroups        1(symmetry);
        nFaces          8568;
        startFace       25840;
    }
    inout
    {
        type            patch;
        nFaces          92;
        startFace       34408;
    }
    profile0
    {
        type            wall;
        inGroups        1(wall);
        nFaces          169;
        startFace       34500;
    }
    profile1
    {
        type            wall;
        inGroups        1(wall);
        nFaces          171;
        startFace       34669;
    }
    profile2
    {
        type            wall;
        inGroups        1(wall);
        nFaces          185;
        startFace       34840;
    }
    profile3
    {
        type            wall;
        inGroups        1(wall);
        nFaces          196;
        startFace       35025;
    }
)

// ************************************************************************* //
