/*--------------------------------*- C++ -*----------------------------------*\
| =========                 |                                                 |
| \\      /  F ield         | OpenFOAM: The Open Source CFD Toolbox           |
|  \\    /   O peration     | Version:  2506                                  |
|   \\  /    A nd           | Website:  www.openfoam.com                      |
|    \\/     M anipulation  |                                                 |
\*---------------------------------------------------------------------------*/
FoamFile
{
    version     2.0;
    format      ascii;
    arch        "LSB;label=32;scalar=64";
    class       dictionary;
    location    "constant/polyMesh";
    object      meshMetaDict;
}
// * * * * * * * * * * * * * * * * * * * * * * * * * * * * * * * * * * * * * //

surfaceFile     "box.stl";

surfaceMeta
{
    nPoints         2496;
    nFacets         2496;
    nPatches        6;
    nFeatureEdges   0;
    patches
    {
        profile0
        {
            type            empty;
            nFacets         1998;
        }
        profile1
        {
            type            empty;
            nFacets         490;
        }
        xMin
        {
            type            empty;
            nFacets         2;
        }
        xMax
        {
            type            empty;
            nFacets         2;
        }
        yMin
        {
            type            empty;
            nFacets         2;
        }
        yMax
        {
            type            empty;
            nFacets         2;
        }
    }
    pointSubsets
    {
    }
    facetSubsets
    {
    }
    featureEdgeSubsets
    {
    }
}
